Program Version,EnergyPlus, Version 9.3.0-baff08990c, YMD=2023.05.26 13:28,
   ** Severe  ** <root>[ExternalInterface][ExternalInterface 1][name_of_external_interface] - "HELICS" - Failed to match against any enum values.
   **  Fatal  ** Errors occurred on processing input file. Preceding condition(s) cause termination.
   ...Summary of Errors that led to program termination:
   ..... Reference severe error count=1
   ..... Last severe error=<root>[ExternalInterface][ExternalInterface 1][name_of_external_interface] - "HELICS" - Failed to match against any enum values.
   ************* Warning:  Node connection errors not checked - most system input has not been read (see previous warning).
   ************* Fatal error -- final processing.  Program exited before simulations began.  See previous error messages.
   ************* EnergyPlus Warmup Error Summary. During Warmup: 0 Warning; 0 Severe Errors.
   ************* EnergyPlus Sizing Error Summary. During Sizing: 0 Warning; 0 Severe Errors.
   ************* EnergyPlus Terminated--Fatal Error Detected. 0 Warning; 1 Severe Errors; Elapsed Time=00hr 00min  0.22sec
